LTspice 24.1.3 for Windows
Circuit: C:\Users\aidsh\OneDrive\Desktop\Buckingworking.net
Start Time: Mon Oct 13 21:03:19 2025
solver = Normal
Maximum thread count: 28
tnom = 27
temp = 27
method = trap
d_d: Emission coefficient, N=0.001, too small, limited to 0.1
d_dred: Emission coefficient, N=0.01, too small, limited to 0.1
Direct Newton iteration failed to find .op point.  (Use ".option noopiter" to skip.)
Starting Gmin stepping
Gmin = 10
Gmin = 1.07374
vernier = 0.5
vernier = 0.25
vernier = 0.125
vernier = 0.0625
Gmin = 1.2061
vernier = 0.03125
vernier = 0.015625
vernier = 0.0078125
vernier = 0.00390625
Gmin = 1.20258
vernier = 0.00195312
vernier = 0.000976562
vernier = 0.000488281
Gmin = 0
Gmin stepping succeeded in finding the operating point.

Total elapsed time: 24.444 seconds.

Files loaded:
C:\Users\aidsh\OneDrive\Desktop\Buckingworking.net
C:\Users\aidsh\Documents\lib\sub\LMR36520A_TRANS.lib

